REMARK SMILES CCc1c2c(nc3ccc(OC(=O)N4CCC([NH+]5CCCCC5)CC4)cc13)-c1cc3c(c(=O)n1C2)COC(=O)[C@]3(O)CC
REMARK SMILES IDX 11 1 12 2 17 3 24 4 16 5 25 6 15 7 14 8 13 9 18 10 19 11
REMARK SMILES IDX 23 12 20 13 22 14 21 15 10 17 26 18 9 19 27 20 8 21 3 22
REMARK SMILES IDX 7 23 4 24 6 25 5 26 35 27 28 28 34 29 29 30 32 31 30 32
REMARK SMILES IDX 31 33 40 34 36 35 38 36 37 37 33 38 39 39 2 40 1 41 41 42
REMARK SMILES IDX 42 44 43 45
REMARK H PARENT 18 16 41 43
ROOT
ATOM      1  O   UNL     1     -25.044  12.215  16.020  1.00  0.00    -0.410 OA
ENDROOT
BRANCH   1   2
ATOM      2  C   UNL     1     -24.624  12.162  17.352  1.00  0.00     0.415 C 
ATOM      3  C   UNL     1     -23.719  15.627  18.901  1.00  0.00     0.187 C 
ATOM      4  C   UNL     1     -23.425  14.280  19.581  1.00  0.00     0.087 C 
ATOM      5  C   UNL     1     -24.275  15.481  17.474  1.00  0.00     0.087 C 
ATOM      6  C   UNL     1     -24.646  13.369  19.482  1.00  0.00     0.129 C 
ATOM      7  C   UNL     1     -25.463  14.515  17.467  1.00  0.00     0.129 C 
ATOM      8  N   UNL     1     -25.054  13.264  18.091  1.00  0.00    -0.307 N 
ATOM      9  O   UNL     1     -23.927  11.279  17.833  1.00  0.00    -0.224 OA
BRANCH   3  10
ATOM     10  N   UNL     1     -22.464  16.513  18.951  1.00  0.00    -0.332 N 
ATOM     11  C   UNL     1     -21.555  16.170  20.116  1.00  0.00     0.262 C 
ATOM     12  C   UNL     1     -22.710  18.009  18.858  1.00  0.00     0.262 C 
ATOM     13  C   UNL     1     -20.228  16.900  19.961  1.00  0.00     0.062 C 
ATOM     14  C   UNL     1     -21.383  18.734  18.692  1.00  0.00     0.062 C 
ATOM     15  C   UNL     1     -20.422  18.406  19.829  1.00  0.00     0.012 C 
ATOM     16  H   UNL     1     -21.925  16.266  18.108  1.00  0.00     0.348 HD
ENDBRANCH   3  10
ENDBRANCH   1   2
BRANCH   1  17
ATOM     17  C   UNL     1     -24.243  12.436  14.873  1.00  0.00     0.133 A 
ATOM     18  C   UNL     1     -23.895  13.687  14.373  1.00  0.00     0.058 A 
ATOM     19  C   UNL     1     -23.779  11.282  14.253  1.00  0.00     0.049 A 
ATOM     20  C   UNL     1     -23.075  13.811  13.222  1.00  0.00     0.007 A 
ATOM     21  C   UNL     1     -22.967  11.387  13.123  1.00  0.00     0.033 A 
ATOM     22  C   UNL     1     -22.695  15.068  12.661  1.00  0.00    -0.031 A 
ATOM     23  C   UNL     1     -22.606  12.617  12.591  1.00  0.00     0.072 A 
ATOM     24  C   UNL     1     -21.888  15.036  11.530  1.00  0.00     0.004 A 
ATOM     25  N   UNL     1     -21.830  12.607  11.496  1.00  0.00    -0.246 NA
ATOM     26  C   UNL     1     -21.497  13.808  11.009  1.00  0.00     0.093 A 
ATOM     27  C   UNL     1     -21.328  16.146  10.688  1.00  0.00     0.164 C 
ATOM     28  C   UNL     1     -20.695  14.058   9.819  1.00  0.00     0.071 A 
ATOM     29  N   UNL     1     -20.603  15.423   9.640  1.00  0.00    -0.302 N 
ATOM     30  C   UNL     1     -20.100  13.209   8.976  1.00  0.00     0.036 A 
ATOM     31  C   UNL     1     -19.895  16.019   8.631  1.00  0.00     0.258 A 
ATOM     32  C   UNL     1     -19.367  13.743   7.833  1.00  0.00     0.009 A 
ATOM     33  C   UNL     1     -19.250  15.071   7.664  1.00  0.00     0.062 A 
ATOM     34  C   UNL     1     -18.789  12.788   6.826  1.00  0.00     0.187 C 
ATOM     35  C   UNL     1     -18.531  15.699   6.524  1.00  0.00     0.275 C 
ATOM     36  C   UNL     1     -17.824  13.461   5.819  1.00  0.00     0.343 C 
ATOM     37  O   UNL     1     -17.968  14.778   5.568  1.00  0.00    -0.458 OA
ATOM     38  O   UNL     1     -19.800  17.233   8.487  1.00  0.00    -0.269 OA
ATOM     39  O   UNL     1     -16.996  12.790   5.200  1.00  0.00    -0.248 OA
BRANCH  22  40
ATOM     40  C   UNL     1     -23.157  16.399  13.207  1.00  0.00     0.033 C 
ATOM     41  C   UNL     1     -22.170  16.974  14.213  1.00  0.00     0.009 C 
ENDBRANCH  22  40
BRANCH  34  42
ATOM     42  O   UNL     1     -18.019  11.808   7.549  1.00  0.00    -0.374 OA
ATOM     43  H   UNL     1     -17.454  11.363   6.883  1.00  0.00     0.212 HD
ENDBRANCH  34  42
BRANCH  34  44
ATOM     44  C   UNL     1     -19.867  12.018   6.027  1.00  0.00     0.049 C 
ATOM     45  C   UNL     1     -19.693  12.034   4.513  1.00  0.00     0.008 C 
ENDBRANCH  34  44
ENDBRANCH   1  17
TORSDOF 6