REMARK  6 active torsions:
REMARK  status: ('A' for Active; 'I' for Inactive)
REMARK    1  A    between atoms: O_1  and  C_21 
REMARK    2  A    between atoms: O_1  and  C_38 
REMARK    3  A    between atoms: C_26  and  O_4 
REMARK    4  A    between atoms: N_7  and  C_11 
REMARK       I    between atoms: N_8  and  C_21 
REMARK    5  A    between atoms: C_26  and  C_33 
REMARK    6  A    between atoms: C_29  and  C_37 
ROOT
ATOM      1  O   UNL d   1      13.113  -3.918   0.995  0.00  0.00    -0.314 OA
ATOM      2  O   UNL d   1       9.956  -4.548  -1.062  0.00  0.00    -0.267 OA
ATOM      3  O   UNL d   1      12.425  -3.754   3.136  0.00  0.00    -0.261 OA
ATOM      4  N   UNL d   1       8.782  -2.917   0.018  0.00  0.00    -0.307 N 
ATOM      5  N   UNL d   1       6.569  -0.123   0.522  0.00  0.00    -0.245 NA
ATOM      6  C   UNL d   1       8.672  -1.646   0.570  0.00  0.00     0.068 C 
ATOM      7  C   UNL d   1       6.549  -2.495   0.151  0.00  0.00    -0.002 C 
ATOM      8  C   UNL d   1       7.515  -3.594  -0.094  0.00  0.00     0.174 C 
ATOM      9  C   UNL d   1      11.097  -1.808   0.909  0.00  0.00     0.002 C 
ATOM     10  C   UNL d   1      12.398  -1.684   1.737  0.00  0.00     0.173 C 
ATOM     11  C   UNL d   1       7.209  -1.310   0.474  0.00  0.00     0.093 C 
ATOM     12  C   UNL d   1      11.163  -2.841   0.025  0.00  0.00     0.044 C 
ATOM     13  C   UNL d   1       5.173  -2.561   0.012  0.00  0.00    -0.035 C 
ATOM     14  C   UNL d   1       9.807  -1.073   1.043  0.00  0.00     0.043 C 
ATOM     15  C   UNL d   1       9.929  -3.501  -0.429  0.00  0.00     0.257 C 
ATOM     16  C   UNL d   1       4.495  -1.340  -0.006  0.00  0.00     0.002 A 
ATOM     17  C   UNL d   1      12.446  -3.591  -0.232  0.00  0.00     0.224 C 
ATOM     18  C   UNL d   1       5.212  -0.138   0.253  0.00  0.00     0.068 A 
ATOM     19  C   UNL d   1      12.659  -3.204   2.063  0.00  0.00     0.298 C 
ATOM     20  C   UNL d   1       2.352  -0.158  -0.238  0.00  0.00     0.082 A 
ATOM     21  C   UNL d   1       3.099  -1.321  -0.278  0.00  0.00     0.051 A 
ATOM     22  C   UNL d   1       4.434   1.032   0.207  0.00  0.00     0.035 A 
ATOM     23  C   UNL d   1       3.029   1.036  -0.021  0.00  0.00     0.040 A 
ENDROOT
BRANCH  20  24
ATOM     24  O   UNL d   1       0.943  -0.164  -0.433  0.00  0.00    -0.261 OA
BRANCH  24  25
ATOM     25  C   UNL d   1       0.131  -1.254  -0.028  0.00  0.00     0.368 C 
ATOM     26  O   UNL d   1       0.540  -2.305   0.453  0.00  0.00    -0.238 OA
ATOM     27  N   UNL d   1      -1.225  -0.943  -0.066  0.00  0.00    -0.328 N 
ATOM     28  C   UNL d   1      -1.970  -1.178   1.159  0.00  0.00     0.130 C 
ATOM     29  C   UNL d   1      -1.971  -1.140  -1.305  0.00  0.00     0.130 C 
ATOM     30  C   UNL d   1      -2.766  -2.483   1.163  0.00  0.00     0.045 C 
ATOM     31  C   UNL d   1      -3.727  -2.511  -0.043  0.00  0.00     0.082 C 
ATOM     32  C   UNL d   1      -2.844  -2.416  -1.312  0.00  0.00     0.045 C 
BRANCH  31  33
ATOM     33  N   UNL d   1      -4.758  -3.560  -0.015  0.00  0.00    -0.408 N 
ATOM     34  C   UNL d   1      -5.382  -3.893   1.263  0.00  0.00     0.117 C 
ATOM     35  C   UNL d   1      -4.776  -5.154   1.883  0.00  0.00     0.019 C 
ATOM     36  C   UNL d   1      -4.880  -6.329   0.916  0.00  0.00     0.003 C 
ATOM     37  C   UNL d   1      -4.262  -5.969  -0.433  0.00  0.00     0.019 C 
ATOM     38  C   UNL d   1      -4.809  -4.649  -0.980  0.00  0.00     0.117 C 
ENDBRANCH  31  33
ENDBRANCH  24  25
ENDBRANCH  20  24
BRANCH  13  39
ATOM     39  C   UNL d   1       4.479  -3.906  -0.036  0.00  0.00     0.036 C 
ATOM     40  C   UNL d   1       3.750  -4.188   1.277  0.00  0.00     0.010 C 
ENDBRANCH  13  39
BRANCH  10  41
ATOM     41  C   UNL d   1      12.561  -0.843   3.031  0.00  0.00     0.049 C 
ATOM     42  C   UNL d   1      13.604  -1.409   4.026  0.00  0.00     0.009 C 
ENDBRANCH  10  41
BRANCH  10  43
ATOM     43  O   UNL d   1      13.390  -1.161   0.829  0.00  0.00    -0.375 OA
ATOM     44  H   UNL d   1      14.264  -1.326   1.225  0.00  0.00     0.211 HD
ENDBRANCH  10  43
TORSDOF 6
