MODEL 1
REMARK minimizedAffinity -10.3602848
REMARK minimizedRMSD 0.235579461
REMARK CNNscore 0.568876982
REMARK CNNaffinity 7.24815035
REMARK SMILES CCc1c2c(nc3ccc(OC(=O)N4CCC([NH+]5CCCCC5)CC4)cc13)-c1cc3c(c(=O)n1C2)COC(=O)[C@]3(O)CC
REMARK SMILES IDX 11 1 12 2 17 3 24 4 16 5 25 6 15 7 14 8 13 9 18 10 19 11
REMARK SMILES IDX 23 12 20 13 22 14 21 15 10 17 26 18 9 19 27 20 8 21 3 22
REMARK SMILES IDX 7 23 4 24 6 25 5 26 35 27 28 28 34 29 29 30 32 31 30 32
REMARK SMILES IDX 31 33 40 34 36 35 38 36 37 37 33 38 39 39 2 40 1 41 41 42
REMARK SMILES IDX 42 44 43 45
REMARK H PARENT 18 16 41 43
ROOT
ATOM      1  O   UNL     1     -24.975  12.253  15.787  1.00  0.00    -0.410 OA
ENDROOT
BRANCH   1   2
ATOM      2  C   UNL     1     -24.553  12.125  17.113  1.00  0.00     0.415 C 
ATOM      3  C   UNL     1     -23.633  15.496  18.850  1.00  0.00     0.187 C 
ATOM      4  C   UNL     1     -23.344  14.113  19.454  1.00  0.00     0.087 C 
ATOM      5  C   UNL     1     -24.191  15.431  17.417  1.00  0.00     0.087 C 
ATOM      6  C   UNL     1     -24.568  13.213  19.307  1.00  0.00     0.129 C 
ATOM      7  C   UNL     1     -25.383  14.472  17.359  1.00  0.00     0.129 C 
ATOM      8  N   UNL     1     -24.978  13.187  17.912  1.00  0.00    -0.307 N 
ATOM      9  O   UNL     1     -23.859  11.215  17.544  1.00  0.00    -0.224 OA
BRANCH   3  10
ATOM     10  N   UNL     1     -22.375  16.374  18.947  1.00  0.00    -0.332 N 
ATOM     11  C   UNL     1     -21.555  16.081  20.189  1.00  0.00     0.262 C 
ATOM     12  C   UNL     1     -22.596  17.865  18.764  1.00  0.00     0.262 C 
ATOM     13  C   UNL     1     -20.212  16.791  20.095  1.00  0.00     0.062 C 
ATOM     14  C   UNL     1     -21.252  18.570  18.659  1.00  0.00     0.062 C 
ATOM     15  C   UNL     1     -20.379  18.291  19.876  1.00  0.00     0.012 C 
ATOM     16  H   UNL     1     -21.780  16.081  18.157  1.00  0.00     0.348 HD
ENDBRANCH   3  10
ENDBRANCH   1   2
BRANCH   1  17
ATOM     17  C   UNL     1     -24.166  12.463  14.643  1.00  0.00     0.133 A 
ATOM     18  C   UNL     1     -23.788  13.709  14.152  1.00  0.00     0.058 A 
ATOM     19  C   UNL     1     -23.727  11.303  14.017  1.00  0.00     0.049 A 
ATOM     20  C   UNL     1     -22.962  13.821  13.004  1.00  0.00     0.007 A 
ATOM     21  C   UNL     1     -22.909  11.396  12.890  1.00  0.00     0.033 A 
ATOM     22  C   UNL     1     -22.552  15.073  12.452  1.00  0.00    -0.031 A 
ATOM     23  C   UNL     1     -22.519  12.621  12.367  1.00  0.00     0.072 A 
ATOM     24  C   UNL     1     -21.743  15.029  11.323  1.00  0.00     0.004 A 
ATOM     25  N   UNL     1     -21.740  12.600  11.274  1.00  0.00    -0.246 NA
ATOM     26  C   UNL     1     -21.379  13.796  10.795  1.00  0.00     0.093 A 
ATOM     27  C   UNL     1     -21.155  16.132  10.490  1.00  0.00     0.164 C 
ATOM     28  C   UNL     1     -20.568  14.035   9.609  1.00  0.00     0.071 A 
ATOM     29  N   UNL     1     -20.444  15.399   9.439  1.00  0.00    -0.302 N 
ATOM     30  C   UNL     1     -19.990  13.178   8.762  1.00  0.00     0.036 A 
ATOM     31  C   UNL     1     -19.720  15.985   8.435  1.00  0.00     0.258 A 
ATOM     32  C   UNL     1     -19.242  13.702   7.624  1.00  0.00     0.009 A 
ATOM     33  C   UNL     1     -19.094  15.028   7.464  1.00  0.00     0.062 A 
ATOM     34  C   UNL     1     -18.684  12.741   6.612  1.00  0.00     0.187 C 
ATOM     35  C   UNL     1     -18.358  15.647   6.330  1.00  0.00     0.275 C 
ATOM     36  C   UNL     1     -17.701  13.398   5.612  1.00  0.00     0.343 C 
ATOM     37  O   UNL     1     -17.814  14.719   5.369  1.00  0.00    -0.458 OA
ATOM     38  O   UNL     1     -19.597  17.197   8.300  1.00  0.00    -0.269 OA
ATOM     39  O   UNL     1     -16.887  12.712   4.991  1.00  0.00    -0.248 OA
BRANCH  22  40
ATOM     40  C   UNL     1     -22.984  16.410  13.006  1.00  0.00     0.033 C 
ATOM     41  C   UNL     1     -21.972  16.971  13.995  1.00  0.00     0.009 C 
ENDBRANCH  22  40
BRANCH  34  42
ATOM     42  O   UNL     1     -17.938  11.739   7.331  1.00  0.00    -0.374 OA
ATOM     43  H   UNL     1     -17.382  11.285   6.664  1.00  0.00     0.212 HD
ENDBRANCH  34  42
BRANCH  34  44
ATOM     44  C   UNL     1     -19.777  12.001   5.806  1.00  0.00     0.049 C 
ATOM     45  C   UNL     1     -19.612  12.043   4.291  1.00  0.00     0.008 C 
ENDBRANCH  34  44
ENDBRANCH   1  17
TORSDOF 6
ENDMDL
